data/TasNetworks - TasNetworks sourcebus_11000.trafo_75586990_75586990/Lines.dss
New Line.line_75582254_3096054_3095705 Units=km Length=0.03490000152587891 bus1=3095705.1.2.3 bus2=3096054.1.2.3 switch=n enabled=y phases=3 Linecode=3P_Code2
New Line.line_75582278_3095705_3095716 Units=km Length=0.007 bus1=3095716.1.2.3 bus2=3095705.1.2.3 switch=n enabled=y phases=3 Linecode=3P_Code0
New Line.line_75582279_3095720_3095716 Units=km Length=0.009699999809265137 bus1=3095716.1.2.3 bus2=3095720.1.2.3 switch=n enabled=y phases=3 Linecode=3P_Code1
New Line.line_75582280_3095737_3095717 Units=km Length=0.024299999237060547 bus1=3095717.1.2.3 bus2=3095737.1.2.3 switch=n enabled=y phases=3 Linecode=3P_Code2
New Line.line_75582287_3095717_3095716 Units=km Length=0.008 bus1=3095716.1.2.3 bus2=3095717.1.2.3 switch=n enabled=y phases=3 Linecode=3P_Code0
New Line.line_75582288_3091648_3095720 Units=km Length=0.06320000076293945 bus1=3095720.1.2.3 bus2=3091648.1.2.3 switch=n enabled=y phases=3 Linecode=3P_Code1
New Line.line_75582299_3096054_3091495 Units=km Length=0.07669999694824219 bus1=3091495.1.2.3 bus2=3096054.1.2.3 switch=n enabled=y phases=3 Linecode=3P_Code0
New Line.line_75582316_3092097_3095737 Units=km Length=0.08290000152587891 bus1=3095737.1.2.3 bus2=3092097.1.2.3 switch=n enabled=y phases=3 Linecode=3P_Code0
New Line.line_75582659_3091461_3091201 Units=km Length=0.011600000381469727 bus1=3091201.1.2.3 bus2=3091461.1.2.3 switch=n enabled=y phases=3 Linecode=3P_Code8
New Line.line_75582982_3092166_3091456 Units=km Length=0.04090000152587891 bus1=3091456.1.2.3 bus2=3092166.1.2.3 switch=n enabled=y phases=3 Linecode=3P_OH_Code5
New Line.line_75582985_3092645_3091459 Units=km Length=0.021899999618530275 bus1=3091459.1.2.3 bus2=3092645.1.2.3 switch=n enabled=y phases=3 Linecode=3P_OH_Code9
New Line.line_75582986_3091611_3091460 Units=km Length=0.012 bus1=3091460.1.2.3 bus2=3091611.1.2.3 switch=n enabled=y phases=3 Linecode=3P_Code8
New Line.line_75582987_3091466_3091461 Units=km Length=0.029200000762939455 bus1=3091461.1.2.3 bus2=3091466.1.2.3 switch=n enabled=y phases=3 Linecode=3P_OH_Code13
New Line.line_75582992_3091610_3091466 Units=km Length=0.027899999618530274 bus1=3091466.1.2.3 bus2=3091610.1.2.3 switch=n enabled=y phases=3 Linecode=3P_OH_Code13
New Line.line_75583004_3092001_3091476 Units=km Length=0.045 bus1=3091476.1.2.3 bus2=3092001.1.2.3 switch=n enabled=y phases=3 Linecode=3P_OH_Code5
New Line.line_75583026_3092527_3091494 Units=km Length=0.016899999618530274 bus1=3091494.2.3 bus2=3092527.2.3 switch=n enabled=y phases=2 Linecode=2P_Code7
New Line.line_75583027_3091932_3091495 Units=km Length=0.021500000000000002 bus1=3091495.1.2.3 bus2=3091932.1.2.3 switch=n enabled=y phases=3 Linecode=3P_Code3
New Line.line_75583028_3091651_3091496 Units=km Length=0.020899999618530275 bus1=3091496.1.2.3 bus2=3091651.1.2.3 switch=n enabled=y phases=3 Linecode=3P_Code4
New Line.line_75583049_3091754_3091515 Units=km Length=0.012899999618530274 bus1=3091515.1.2.3 bus2=3091754.1.2.3 switch=n enabled=y phases=3 Linecode=3P_Code3
New Line.line_75583214_3092758_3091466 Units=km Length=0.025399999618530275 bus1=3091466.1.2.3 bus2=3092758.1.2.3 switch=n enabled=y phases=3 Linecode=3P_Code4
New Line.line_75583215_3092759_3091610 Units=km Length=0.020100000381469727 bus1=3091610.1.2.3 bus2=3092759.1.2.3 switch=n enabled=y phases=3 Linecode=3P_Code4
New Line.line_75583216_3092759_3091610 Units=km Length=0.020100000381469727 bus1=3091610.1.2.3 bus2=3092759.1.2.3 switch=n enabled=y phases=3 Linecode=3P_Code4
New Line.line_75583217_3092760_3091611 Units=km Length=0.023700000762939454 bus1=3091611.1.2.3 bus2=3092760.1.2.3 switch=n enabled=y phases=3 Linecode=3P_Code4
New Line.line_75583298_3092833_3091610 Units=km Length=0.03390000152587891 bus1=3091610.1.2.3 bus2=3092833.1.2.3 switch=n enabled=y phases=3 Linecode=3P_Code4
New Line.line_75583299_3092834_3091647 Units=km Length=0.029 bus1=3091647.1.2.3 bus2=3092834.1.2.3 switch=n enabled=y phases=3 Linecode=3P_Code4
New Line.line_75583300_3092835_3091648 Units=km Length=0.030799999237060546 bus1=3091648.1.2.3 bus2=3092835.1.2.3 switch=n enabled=y phases=3 Linecode=3P_Code4
New Line.line_75583305_3092840_3091495 Units=km Length=0.030600000381469726 bus1=3091495.1.2.3 bus2=3092840.1.2.3 switch=n enabled=y phases=3 Linecode=3P_Code4
New Line.line_75583306_3092841_3091456 Units=km Length=0.035900001525878904 bus1=3091456.1.2.3 bus2=3092841.1.2.3 switch=n enabled=y phases=3 Linecode=3P_Code4
New Line.line_75583307_3092842_3091651 Units=km Length=0.030899999618530273 bus1=3091651.1.2.3 bus2=3092842.1.2.3 switch=n enabled=y phases=3 Linecode=3P_Code4
New Line.line_75583308_3092843_3091651 Units=km Length=0.021500000000000002 bus1=3091651.1.2.3 bus2=3092843.1.2.3 switch=n enabled=y phases=3 Linecode=3P_Code4
New Line.line_75583309_3092844_3091652 Units=km Length=0.0205 bus1=3091652.2.3 bus2=3092844.2.3 switch=n enabled=y phases=2 Linecode=2P_Code7
New Line.line_75583310_3092845_3091653 Units=km Length=0.035 bus1=3091653.1.2.3 bus2=3092845.1.2.3 switch=n enabled=y phases=3 Linecode=3P_Code4
New Line.line_75583502_3093021_3091754 Units=km Length=0.019899999618530274 bus1=3091754.1.2.3 bus2=3093021.1.2.3 switch=n enabled=y phases=3 Linecode=3P_Code3
New Line.line_75583697_3093193_3091849 Units=km Length=0.021 bus1=3091849.2 bus2=3093193.2 switch=n enabled=y phases=1 Linecode=1P_Code12
New Line.line_75583732_3093227_3091860 Units=km Length=0.03870000076293945 bus1=3091860.1.2.3 bus2=3093227.1.2.3 switch=n enabled=y phases=3 Linecode=3P_Code4
New Line.line_75583733_3093228_3091860 Units=km Length=0.035500000000000004 bus1=3091860.1.2.3 bus2=3093228.1.2.3 switch=n enabled=y phases=3 Linecode=3P_Code4
New Line.line_75583933_3093412_3091495 Units=km Length=0.025899999618530276 bus1=3091495.1.2.3 bus2=3093412.1.2.3 switch=n enabled=y phases=3 Linecode=3P_Code4
New Line.line_75583934_3093413_3091932 Units=km Length=0.032599998474121095 bus1=3091932.1.2.3 bus2=3093413.1.2.3 switch=n enabled=y phases=3 Linecode=3P_Code4
New Line.line_75583935_3093414_3091933 Units=km Length=0.027200000762939453 bus1=3091933.1.2.3 bus2=3093414.1.2.3 switch=n enabled=y phases=3 Linecode=3P_OH_Code5
New Line.line_75584002_3093481_3091496 Units=km Length=0.036799999237060545 bus1=3091496.1.2.3 bus2=3093481.1.2.3 switch=n enabled=y phases=3 Linecode=3P_Code4
New Line.line_75584018_3093497_3091476 Units=km Length=0.0425 bus1=3091476.1.2.3 bus2=3093497.1.2.3 switch=n enabled=y phases=3 Linecode=3P_Code4
New Line.line_75584019_3093498_3091476 Units=km Length=0.03720000076293945 bus1=3091476.1.2.3 bus2=3093498.1.2.3 switch=n enabled=y phases=3 Linecode=3P_Code4
New Line.line_75584107_3093577_3092001 Units=km Length=0.034 bus1=3092001.1.2.3 bus2=3093577.1.2.3 switch=n enabled=y phases=3 Linecode=3P_Code4
New Line.line_75584168_3093616_3091647 Units=km Length=0.033099998474121095 bus1=3091647.1.2.3 bus2=3093616.1.2.3 switch=n enabled=y phases=3 Linecode=3P_Code4
New Line.line_75584169_3093616_3091647 Units=km Length=0.033099998474121095 bus1=3091647.1.2.3 bus2=3093616.1.2.3 switch=n enabled=y phases=3 Linecode=3P_Code4
New Line.line_75584213_3093642_3091652 Units=km Length=0.025100000381469728 bus1=3091652.2.3 bus2=3093642.2.3 switch=n enabled=y phases=2 Linecode=2P_Code7
New Line.line_75584237_3091648_3091647 Units=km Length=0.03659999847412109 bus1=3091647.1.2.3 bus2=3091648.1.2.3 switch=n enabled=y phases=3 Linecode=3P_OH_Code5
New Line.line_75584239_3093656_3091466 Units=km Length=0.029899999618530276 bus1=3091466.1.2.3 bus2=3093656.1.2.3 switch=n enabled=y phases=3 Linecode=3P_Code4
New Line.line_75584288_3093689_3092001 Units=km Length=0.033599998474121096 bus1=3092001.1.2.3 bus2=3093689.1.2.3 switch=n enabled=y phases=3 Linecode=3P_Code4
New Line.line_75584298_3093693_3091647 Units=km Length=0.024 bus1=3091647.1.2.3 bus2=3093693.1.2.3 switch=n enabled=y phases=3 Linecode=3P_Code4
New Line.line_75584321_3093709_3091460 Units=km Length=0.0275 bus1=3091460.1.2.3 bus2=3093709.1.2.3 switch=n enabled=y phases=3 Linecode=3P_Code4
New Line.line_75584322_3093710_3091494 Units=km Length=0.03540000152587891 bus1=3091494.1.2.3 bus2=3093710.1.2.3 switch=n enabled=y phases=3 Linecode=3P_Code4
New Line.line_75584377_3093736_3091653 Units=km Length=0.024399999618530274 bus1=3091653.1.2.3 bus2=3093736.1.2.3 switch=n enabled=y phases=3 Linecode=3P_Code4
New Line.line_75584386_3091515_3091460 Units=km Length=0.036799999237060545 bus1=3091460.1.2.3 bus2=3091515.1.2.3 switch=n enabled=y phases=3 Linecode=3P_OH_Code5
New Line.line_75584398_3093747_3091515 Units=km Length=0.033099998474121095 bus1=3091515.1.2.3 bus2=3093747.1.2.3 switch=n enabled=y phases=3 Linecode=3P_Code4
New Line.line_75584448_3092166_3091496 Units=km Length=0.03990000152587891 bus1=3091496.1.2.3 bus2=3092166.1.2.3 switch=n enabled=y phases=3 Linecode=3P_OH_Code5
New Line.line_75584466_3091849_3092097 Units=km Length=0.012 bus1=3092097.2 bus2=3091849.2 switch=n enabled=y phases=1 Linecode=1P_Code12
New Line.line_75584629_3091652_3091648 Units=km Length=0.0175 bus1=3091648.2.3 bus2=3091652.2.3 switch=n enabled=y phases=2 Linecode=2P_Code10
New Line.line_75584677_3091456_3091459 Units=km Length=0.032200000762939454 bus1=3091459.1.2.3 bus2=3091456.1.2.3 switch=n enabled=y phases=3 Linecode=3P_OH_Code9
New Line.line_75584693_3091933_3092166 Units=km Length=0.03659999847412109 bus1=3092166.1.2.3 bus2=3091933.1.2.3 switch=n enabled=y phases=3 Linecode=3P_OH_Code5
New Line.line_75584701_3093850_3091610 Units=km Length=0.03659999847412109 bus1=3091610.1.2.3 bus2=3093850.1.2.3 switch=n enabled=y phases=3 Linecode=3P_Code4
New Line.line_75584706_3091653_3091648 Units=km Length=0.04029999923706055 bus1=3091648.1.2.3 bus2=3091653.1.2.3 switch=n enabled=y phases=3 Linecode=3P_OH_Code5
New Line.line_75584716_3093861_3091212 Units=km Length=0.02529999923706055 bus1=3091212.1.2.3 bus2=3093861.1.2.3 switch=n enabled=y phases=3 Linecode=3P_Code4
New Line.line_75584888_3094007_3091496 Units=km Length=0.030299999237060546 bus1=3091496.1.2.3 bus2=3094007.1.2.3 switch=n enabled=y phases=3 Linecode=3P_Code4
New Line.line_75584889_3094008_3091201 Units=km Length=0.019100000381469726 bus1=3091201.1.2.3 bus2=3094008.1.2.3 switch=n enabled=y phases=3 Linecode=3P_Code4
New Line.line_75584892_3091212_3092097 Units=km Length=0.037900001525878906 bus1=3092097.1.2.3 bus2=3091212.1.2.3 switch=n enabled=y phases=3 Linecode=3P_OH_Code5
New Line.line_75584909_3094022_3091476 Units=km Length=0.038299999237060546 bus1=3091476.1.2.3 bus2=3094022.1.2.3 switch=n enabled=y phases=3 Linecode=3P_Code4
New Line.line_75584919_3094032_3092097 Units=km Length=0.024100000381469727 bus1=3092097.1.2.3 bus2=3094032.1.2.3 switch=n enabled=y phases=3 Linecode=3P_Code4
New Line.line_75584920_3094033_3091212 Units=km Length=0.027899999618530274 bus1=3091212.1.2.3 bus2=3094033.1.2.3 switch=n enabled=y phases=3 Linecode=3P_Code4
New Line.line_75585010_3091860_3092166 Units=km Length=0.020600000381469728 bus1=3092166.1.2.3 bus2=3091860.1.2.3 switch=n enabled=y phases=3 Linecode=3P_Code8
New Line.line_75585029_3094103_3091648 Units=km Length=0.039599998474121094 bus1=3091648.1.2.3 bus2=3094103.1.2.3 switch=n enabled=y phases=3 Linecode=3P_Code4
New Line.line_75585099_3094141_3091466 Units=km Length=0.0315 bus1=3091466.1.2.3 bus2=3094141.1.2.3 switch=n enabled=y phases=3 Linecode=3P_Code4
New Line.line_75585230_3094225_3092097 Units=km Length=0.031200000762939453 bus1=3092097.1.2.3 bus2=3094225.1.2.3 switch=n enabled=y phases=3 Linecode=3P_Code4
New Line.line_75585451_3094365_3091460 Units=km Length=0.032599998474121095 bus1=3091460.1.2.3 bus2=3094365.1.2.3 switch=n enabled=y phases=3 Linecode=3P_Code4
New Line.line_75585562_3094435_3091461 Units=km Length=0.020200000762939454 bus1=3091461.1.2.3 bus2=3094435.1.2.3 switch=n enabled=y phases=3 Linecode=3P_Code4
New Line.line_75585590_3094451_3091653 Units=km Length=0.03620000076293945 bus1=3091653.1.2.3 bus2=3094451.1.2.3 switch=n enabled=y phases=3 Linecode=3P_Code4
New Line.line_75585672_3092097_3091515 Units=km Length=0.038400001525878906 bus1=3091515.1.2.3 bus2=3092097.1.2.3 switch=n enabled=y phases=3 Linecode=3P_OH_Code5
New Line.line_75585757_3094543_3091494 Units=km Length=0.028100000381469727 bus1=3091494.1.2.3 bus2=3094543.1.2.3 switch=n enabled=y phases=3 Linecode=3P_Code4
New Line.line_75585768_3094549_3091456 Units=km Length=0.028 bus1=3091456.1.2.3 bus2=3094549.1.2.3 switch=n enabled=y phases=3 Linecode=3P_Code4
New Line.line_75585769_3094550_3092166 Units=km Length=0.034099998474121096 bus1=3092166.1.2.3 bus2=3094550.1.2.3 switch=n enabled=y phases=3 Linecode=3P_Code4
New Line.line_75585786_3091494_3091495 Units=km Length=0.033599998474121096 bus1=3091495.1.2.3 bus2=3091494.1.2.3 switch=n enabled=y phases=3 Linecode=3P_OH_Code5
New Line.line_75585792_3094564_3091466 Units=km Length=0.028399999618530274 bus1=3091466.1.2.3 bus2=3094564.1.2.3 switch=n enabled=y phases=3 Linecode=3P_Code4
New Line.line_75585837_3091495_3091933 Units=km Length=0.04029999923706055 bus1=3091933.1.2.3 bus2=3091495.1.2.3 switch=n enabled=y phases=3 Linecode=3P_OH_Code5
New Line.line_75585885_3094621_3091648 Units=km Length=0.03179999923706055 bus1=3091648.1.2.3 bus2=3094621.1.2.3 switch=n enabled=y phases=3 Linecode=3P_Code4
New Line.line_75585952_3094658_3091860 Units=km Length=0.04129999923706055 bus1=3091860.1.2.3 bus2=3094658.1.2.3 switch=n enabled=y phases=3 Linecode=3P_Code4
New Line.line_75586000_3094691_3091476 Units=km Length=0.03240000152587891 bus1=3091476.1.2.3 bus2=3094691.1.2.3 switch=n enabled=y phases=3 Linecode=3P_Code4
New Line.line_75586021_3092528_3091494 Units=km Length=0.015899999618530274 bus1=3091494.1.2.3 bus2=3092528.1.2.3 switch=n enabled=y phases=3 Linecode=3P_Code8
New Line.line_75586097_3094749_3091201 Units=km Length=0.02160000038146973 bus1=3091201.1.2.3 bus2=3094749.1.2.3 switch=n enabled=y phases=3 Linecode=3P_Code4
New Line.line_75586111_3094758_3092001 Units=km Length=0.03720000076293945 bus1=3092001.1.2.3 bus2=3094758.1.2.3 switch=n enabled=y phases=3 Linecode=3P_Code4
New Line.line_75586123_3091476_3091653 Units=km Length=0.04229999923706055 bus1=3091653.1.2.3 bus2=3091476.1.2.3 switch=n enabled=y phases=3 Linecode=3P_OH_Code5
New Line.line_75586205_3094818_3091496 Units=km Length=0.0305 bus1=3091496.1.2.3 bus2=3094818.1.2.3 switch=n enabled=y phases=3 Linecode=3P_Code4
New Line.line_75586255_3094848_3091466 Units=km Length=0.0235 bus1=3091466.1.2.3 bus2=3094848.1.2.3 switch=n enabled=y phases=3 Linecode=3P_Code4
New Line.line_75586396_3094928_3091461 Units=km Length=0.0165 bus1=3091461.1.2.3 bus2=3094928.1.2.3 switch=n enabled=y phases=3 Linecode=3P_Code4
New Line.line_75586405_3094932_3092474 Units=km Length=0.014 bus1=3092474.1.2.3 bus2=3094932.1.2.3 switch=n enabled=y phases=3 Linecode=3P_Code3
New Line.line_75586410_3094937_3092166 Units=km Length=0.026299999237060546 bus1=3092166.1.2.3 bus2=3094937.1.2.3 switch=n enabled=y phases=3 Linecode=3P_Code4
New Line.line_75586411_3094937_3092166 Units=km Length=0.026299999237060546 bus1=3092166.1.2.3 bus2=3094937.1.2.3 switch=n enabled=y phases=3 Linecode=3P_Code4
New Line.line_75586442_3094954_3091611 Units=km Length=0.0225 bus1=3091611.1.2.3 bus2=3094954.1.2.3 switch=n enabled=y phases=3 Linecode=3P_Code4
New Line.line_75586448_3094958_3091653 Units=km Length=0.042 bus1=3091653.1.2.3 bus2=3094958.1.2.3 switch=n enabled=y phases=3 Linecode=3P_Code4
New Line.line_75586449_3091653_3092474 Units=km Length=0.011699999809265137 bus1=3092474.1.2.3 bus2=3091653.1.2.3 switch=n enabled=y phases=3 Linecode=3P_Code3
New Line.line_75586450_3091460_3091610 Units=km Length=0.03979999923706055 bus1=3091610.1.2.3 bus2=3091460.1.2.3 switch=n enabled=y phases=3 Linecode=3P_OH_Code13
New Line.line_75586471_3094972_3091932 Units=km Length=0.039099998474121093 bus1=3091932.1.2.3 bus2=3094972.1.2.3 switch=n enabled=y phases=3 Linecode=3P_Code4
New Line.line_75586638_3095057_3091610 Units=km Length=0.007800000190734863 bus1=3091610.2 bus2=3095057.2 switch=n enabled=y phases=1 Linecode=1P_Code11
New Line.line_75586663_3095069_3092527 Units=km Length=0.022399999618530272 bus1=3092527.2.3 bus2=3095069.2.3 switch=n enabled=y phases=2 Linecode=2P_Code7
New Line.line_75586664_3095070_3092527 Units=km Length=0.021399999618530275 bus1=3092527.2.3 bus2=3095070.2.3 switch=n enabled=y phases=2 Linecode=2P_Code7
New Line.line_75586665_3095071_3092528 Units=km Length=0.021399999618530275 bus1=3092528.1.2.3 bus2=3095071.1.2.3 switch=n enabled=y phases=3 Linecode=3P_Code4
New Line.line_75586666_3095072_3092528 Units=km Length=0.020899999618530275 bus1=3092528.1.2.3 bus2=3095072.1.2.3 switch=n enabled=y phases=3 Linecode=3P_Code4
New Line.line_75586667_3095073_3092528 Units=km Length=0.011600000381469727 bus1=3092528.1.2.3 bus2=3095073.1.2.3 switch=n enabled=y phases=3 Linecode=3P_Code3
New Line.line_75586699_3095098_3092097 Units=km Length=0.019899999618530274 bus1=3092097.1.2.3 bus2=3095098.1.2.3 switch=n enabled=y phases=3 Linecode=3P_Code4
New Line.line_75586700_3095099_3091515 Units=km Length=0.022899999618530273 bus1=3091515.1.2.3 bus2=3095099.1.2.3 switch=n enabled=y phases=3 Linecode=3P_Code4
New Line.line_75586701_3095100_3091515 Units=km Length=0.011800000190734863 bus1=3091515.1.2.3 bus2=3095100.1.2.3 switch=n enabled=y phases=3 Linecode=3P_Code4
New Line.line_75586702_3092534_3092097 Units=km Length=0.015699999809265137 bus1=3092097.3 bus2=3092534.3 switch=n enabled=y phases=1 Linecode=1P_Code11
New Line.line_75586703_3095101_3092534 Units=km Length=0.006300000190734864 bus1=3092534.3 bus2=3095101.3 switch=n enabled=y phases=1 Linecode=1P_Code11
New Line.line_75586741_3095123_3091476 Units=km Length=0.0115 bus1=3091476.3 bus2=3095123.3 switch=n enabled=y phases=1 Linecode=1P_Code11
New Line.line_75586756_3095132_3092551 Units=km Length=0.008399999618530274 bus1=3092551.1.2.3 bus2=3095132.1.2.3 switch=n enabled=y phases=3 Linecode=3P_Code4
New Line.line_75586757_3092551_3092097 Units=km Length=0.020200000762939454 bus1=3092097.1.2.3 bus2=3092551.1.2.3 switch=n enabled=y phases=3 Linecode=3P_Code4
New Line.line_75596858_3096162_3093736 Units=km Length=0.013252183593749103 bus1=3093736.3 bus2=3096162.3 switch=n enabled=y phases=1 Linecode=1P_Code6
New Line.line_75596859_3096163_3093736 Units=km Length=0.013252183593749103 bus1=3093736.3 bus2=3096163.3 switch=n enabled=y phases=1 Linecode=1P_Code6
New Line.line_75596860_3096164_3095737 Units=km Length=0.01391809150928 bus1=3095737.3 bus2=3096164.3 switch=n enabled=y phases=1 Linecode=1P_Code6
New Line.line_75596861_3096165_3093616 Units=km Length=0.004749737360764574 bus1=3093616.2 bus2=3096165.2 switch=n enabled=y phases=1 Linecode=1P_Code6
New Line.line_75596862_3096166_3093616 Units=km Length=0.006621376367747274 bus1=3093616.2 bus2=3096166.2 switch=n enabled=y phases=1 Linecode=1P_Code6
New Line.line_75596863_3096167_3093861 Units=km Length=0.016054235111168366 bus1=3093861.2 bus2=3096167.2 switch=n enabled=y phases=1 Linecode=1P_Code6
New Line.line_75596864_3096168_3091496 Units=km Length=0.016183979895242423 bus1=3091496.2 bus2=3096168.2 switch=n enabled=y phases=1 Linecode=1P_Code6
New Line.line_75596865_3096169_3094937 Units=km Length=0.00783440118974001 bus1=3094937.1 bus2=3096169.1 switch=n enabled=y phases=1 Linecode=1P_Code6
New Line.line_75596872_3096176_3095069 Units=km Length=0.006838669917952247 bus1=3095069.3 bus2=3096176.3 switch=n enabled=y phases=1 Linecode=1P_Code6
New Line.line_75596873_3096177_3095069 Units=km Length=0.006838669917952247 bus1=3095069.2 bus2=3096177.2 switch=n enabled=y phases=1 Linecode=1P_Code6
New Line.line_75596874_3096178_3095072 Units=km Length=0.005040739331035145 bus1=3095072.2 bus2=3096178.2 switch=n enabled=y phases=1 Linecode=1P_Code6
New Line.line_75596875_3096179_3094972 Units=km Length=0.017696644773789596 bus1=3094972.1 bus2=3096179.1 switch=n enabled=y phases=1 Linecode=1P_Code6
New Line.line_75596876_3096180_3094972 Units=km Length=0.017696644773789596 bus1=3094972.2 bus2=3096180.2 switch=n enabled=y phases=1 Linecode=1P_Code6
New Line.line_75596877_3096181_3092645 Units=km Length=0.029073093253387666 bus1=3092645.3 bus2=3096181.3 switch=n enabled=y phases=1 Linecode=1P_Code6
New Line.line_75596878_3096182_3092645 Units=km Length=0.029073093253387666 bus1=3092645.2 bus2=3096182.2 switch=n enabled=y phases=1 Linecode=1P_Code6
New Line.line_75596879_3096183_3092645 Units=km Length=0.029073093253387666 bus1=3092645.1 bus2=3096183.1 switch=n enabled=y phases=1 Linecode=1P_Code6
New Line.line_75596880_3096184_3092645 Units=km Length=0.029073093253387666 bus1=3092645.1 bus2=3096184.1 switch=n enabled=y phases=1 Linecode=1P_Code6
New Line.line_75596881_3096185_3092645 Units=km Length=0.029073093253387666 bus1=3092645.2 bus2=3096185.2 switch=n enabled=y phases=1 Linecode=1P_Code6
New Line.line_75596882_3096186_3092645 Units=km Length=0.029073093253387666 bus1=3092645.2 bus2=3096186.2 switch=n enabled=y phases=1 Linecode=1P_Code6
New Line.line_75596883_3096187_3092645 Units=km Length=0.029073093253387666 bus1=3092645.1 bus2=3096187.1 switch=n enabled=y phases=1 Linecode=1P_Code6
New Line.line_75596884_3096188_3092645 Units=km Length=0.029073093253387666 bus1=3092645.2 bus2=3096188.2 switch=n enabled=y phases=1 Linecode=1P_Code6
New Line.line_75596885_3096189_3092645 Units=km Length=0.029073093253387666 bus1=3092645.1 bus2=3096189.1 switch=n enabled=y phases=1 Linecode=1P_Code6
New Line.line_75596886_3096190_3092645 Units=km Length=0.029073093253387666 bus1=3092645.2 bus2=3096190.2 switch=n enabled=y phases=1 Linecode=1P_Code6
New Line.line_75596887_3096191_3092645 Units=km Length=0.029073093253387666 bus1=3092645.2 bus2=3096191.2 switch=n enabled=y phases=1 Linecode=1P_Code6
New Line.line_75596888_3096192_3092645 Units=km Length=0.029073093253387666 bus1=3092645.3 bus2=3096192.3 switch=n enabled=y phases=1 Linecode=1P_Code6
New Line.line_75596889_3096193_3092645 Units=km Length=0.029073093253387666 bus1=3092645.2 bus2=3096193.2 switch=n enabled=y phases=1 Linecode=1P_Code6
New Line.line_75596890_3096194_3092645 Units=km Length=0.029073093253387666 bus1=3092645.1 bus2=3096194.1 switch=n enabled=y phases=1 Linecode=1P_Code6
New Line.line_75596891_3096195_3092841 Units=km Length=0.01994188798149721 bus1=3092841.2 bus2=3096195.2 switch=n enabled=y phases=1 Linecode=1P_Code6
New Line.line_75596892_3096196_3092759 Units=km Length=0.005226904724810289 bus1=3092759.2 bus2=3096196.2 switch=n enabled=y phases=1 Linecode=1P_Code6
New Line.line_75596893_3096197_3092758 Units=km Length=0.011967000052171033 bus1=3092758.2 bus2=3096197.2 switch=n enabled=y phases=1 Linecode=1P_Code6
New Line.line_75596894_3096198_3094848 Units=km Length=0.00893073849123009 bus1=3094848.3 bus2=3096198.3 switch=n enabled=y phases=1 Linecode=1P_Code6
New Line.line_75596895_3096199_3094848 Units=km Length=0.00893073849123009 bus1=3094848.1 bus2=3096199.1 switch=n enabled=y phases=1 Linecode=1P_Code6
New Line.line_75596896_3096200_3094225 Units=km Length=0.02211104531709801 bus1=3094225.3 bus2=3096200.3 switch=n enabled=y phases=1 Linecode=1P_Code6
New Line.line_75596897_3096201_3092844 Units=km Length=0.0012730946550014613 bus1=3092844.2 bus2=3096201.2 switch=n enabled=y phases=1 Linecode=1P_Code6
New Line.line_75596898_3096202_3092844 Units=km Length=0.0012730946550014613 bus1=3092844.2 bus2=3096202.2 switch=n enabled=y phases=1 Linecode=1P_Code6
New Line.line_75596899_3096203_3094451 Units=km Length=0.009588004588634425 bus1=3094451.2 bus2=3096203.2 switch=n enabled=y phases=1 Linecode=1P_Code6
New Line.line_75596900_3096204_3094451 Units=km Length=0.009588004588634425 bus1=3094451.3 bus2=3096204.3 switch=n enabled=y phases=1 Linecode=1P_Code6
New Line.line_75597120_3096424_3092758 Units=km Length=0.0124184902967724 bus1=3092758.1 bus2=3096424.1 switch=n enabled=y phases=1 Linecode=1P_Code6
New Line.line_75597132_3096436_3095057 Units=km Length=0.01490961850606777 bus1=3095057.2 bus2=3096436.2 switch=n enabled=y phases=1 Linecode=1P_Code6
New Line.line_75597163_3096467_3095072 Units=km Length=0.005040739331035145 bus1=3095072.2 bus2=3096467.2 switch=n enabled=y phases=1 Linecode=1P_Code6
New Line.line_75597175_3096479_3092844 Units=km Length=0.0012730946550014613 bus1=3092844.2 bus2=3096479.2 switch=n enabled=y phases=1 Linecode=1P_Code6
New Line.line_75597176_3096480_3094928 Units=km Length=0.004565373150036147 bus1=3094928.3 bus2=3096480.3 switch=n enabled=y phases=1 Linecode=1P_Code6
New Line.line_75597181_3096485_3093861 Units=km Length=0.016054235111168366 bus1=3093861.1 bus2=3096485.1 switch=n enabled=y phases=1 Linecode=1P_Code6
New Line.line_75597187_3096491_3092645 Units=km Length=0.029073093253387666 bus1=3092645.1 bus2=3096491.1 switch=n enabled=y phases=1 Linecode=1P_Code6
